
=== [1] (current hint not in top-5) ===
Q: What was the opening invocation of The Odyssey?
GT: Tell me, O Muse, of that ingenious hero who travelled far and wide after he had sacked the famous town of Troy
OLD HINT: Tell me, O Muse, of that ingenious hero who travelled far and wide after he had sacked the famous town of Troy
  [1] [the_odyssey > BOOK IX ULYSSES DECLARES HIMSELF AND BEGINS HIS STORY—-THE CICONS, LOTOPHAGI, AND CYCLOPES.] “‘Strangers, who are you? Where do sail from? Are you traders, or do you sail the sea as rovers, with your hands against every man, and every man’s hand against you?’
  [2] [the_odyssey > BOOK I THE GODS IN COUNCIL—MINERVA’S VISIT TO ITHACA—THE CHALLENGE FROM TELEMACHUS TO THE SUITORS.] will also conduct him to Sparta and to Pylos, to see if he can hear anything about the return of his dear father—for this will make people speak well of him.”
  [3] [the_odyssey > BOOK I THE GODS IN COUNCIL—MINERVA’S VISIT TO ITHACA—THE CHALLENGE FROM TELEMACHUS TO THE SUITORS.] plead infancy any longer; have you not heard how people are singing Orestes’ praises for having killed his father’s murderer Aegisthus? You are a fine, smart looking fellow; show your mettle, then, and make yourself a name in story. Now, however, I must go back to my ship and to my crew, who will be impatient if I keep them waiting longer; think the matter over for yourself, and remember what I have said to you.”
  [4] [the_odyssey > BOOK IX ULYSSES DECLARES HIMSELF AND BEGINS HIS STORY—-THE CICONS, LOTOPHAGI, AND CYCLOPES.] talk, you would tell me where the wretch is hiding, and I would dash his brains upon the ground till they flew all over the cave. I should thus have some satisfaction for the harm this no-good Noman has done me.’
  [5] [the_odyssey > BOOK I THE GODS IN COUNCIL—MINERVA’S VISIT TO ITHACA—THE CHALLENGE FROM TELEMACHUS TO THE SUITORS.] and eyes, for we were close friends before he set sail for Troy where the flower of all the Argives went also. Since that time we have never either of us seen the other.”

=== [3] (current hint not in top-5) ===
Q: Why did Neptune hate Ulysses?
GT: Because Ulysses had blinded an eye of Polyphemus king of the Cyclopes, who was son to Neptune
OLD HINT: Neptune is still furious with Ulysses for having blinded an eye of Polyphemus king of the Cyclopes. Polyphemus is son to Neptune
  [1] [the_odyssey > BOOK IX ULYSSES DECLARES HIMSELF AND BEGINS HIS STORY—-THE CICONS, LOTOPHAGI, AND CYCLOPES.] “He said this to draw me out, but I was too cunning to be caught in that way, so I answered with a lie; ‘Neptune,’ said I, ‘sent my ship on to the rocks at the far end of your country, and wrecked it. We were driven on to them from the open sea, but I and those who are with me escaped the jaws of death.’
  [2] [the_odyssey > BOOK V CALYPSO—ULYSSES REACHES SCHERIA ON A RAFT — And now, as Dawn rose from her couch beside Tithonus—harbinger of light] “My poor good man,” said she, “why is Neptune so furiously angry with you? He is giving you a great deal of trouble, but for all his bluster he will not kill you. You seem to be a sensible person, do then as I bid you; strip, leave your raft to drive before the wind, and swim to the Phaeacian coast where better luck awaits you. And here, take my veil and put it round your chest; it is enchanted, and you can come to no harm so long as you wear it. As soon as
  [3] [the_odyssey > BOOK XXIV THE GHOSTS OF THE SUITORS IN HADES—ULYSSES AND HIS MEN GO TO THE HOUSE OF LAERTES—THE PEOPLE OF ITHACA COME OUT TO ATTACK ULYSSES, BUT MINERVA] [44] [ The Greek is {Greek}. Is it unfair to argue that the writer is a person of somewhat delicate sensibility, to whom a strong smell of fish is distasteful?]
  [4] [the_odyssey > BOOK XVI ULYSSES REVEALS HIMSELF TO TELEMACHUS — Meanwhile Ulysses and the swineherd had lit a fire in the hut and were] pirates and plundered the Thesprotians who were at peace with us? They wanted to tear him in pieces and eat up everything he had, but Ulysses stayed their hands although they were infuriated, and now you devour his property without paying for it, and break my heart by wooing his wife and trying to kill his son. Leave off doing so, and stop the others also.”
  [5] [the_odyssey > BOOK XVIII THE FIGHT WITH IRUS—ULYSSES WARNS AMPHINOMUS—PENELOPE GETS PRESENTS] Ulysses frowned on him and said, “My friend, I do you no manner of harm; people give you a great deal, but I am not jealous. There is room enough in this doorway for the pair of us, and you need not grudge me things that are not yours to give. You seem to be just such another tramp as myself, but perhaps the gods will give us better luck by and by. Do not, however, talk too much about fighting or you will incense me, and old though I am, I shall cover your mouth and chest with blood. I shall have mor

=== [5] (current hint not in top-5) ===
Q: In what disguise did Minerva visit Telemachus at the start of The Odyssey?
GT: She disguised herself as Mentes, chief of the Taphians
OLD HINT: she was in Ithaca, at the gateway of Ulysses' house, disguised as a visitor, Mentes, chief of the Taphians
  [1] [the_odyssey > BOOK I THE GODS IN COUNCIL—MINERVA’S VISIT TO ITHACA—THE CHALLENGE FROM TELEMACHUS TO THE SUITORS.] Telemachus saw her long before any one else did. He was sitting moodily among the suitors thinking about his brave father, and how he would send them flying out of the house, if he were to come to his own again and be honoured as in days gone by. Thus brooding as he sat among them, he caught sight of Minerva and went straight to the gate, for he was vexed that a stranger should be kept waiting for admittance. He took her right hand in his own, and bade her give him her spear. “Wel
  [2] [the_odyssey > BOOK II ASSEMBLY OF THE PEOPLE OF ITHACA—SPEECHES OF TELEMACHUS AND OF THE SUITORS—TELEMACHUS MAKES HIS PREPARATIONS AND STARTS FOR PYLOS WITH] MINERVA DISGUISED AS MENTOR.
  [3] [the_odyssey > BOOK XV MINERVA SUMMONS TELEMACHUS FROM LACEDAEMON—HE MEETS WITH THEOCLYMENUS AT PYLOS AND BRINGS HIM TO ITHACA—ON LANDING HE GOES TO THE HUT OF] are kept quite clean and are loaded with bread, meat, and wine. Stay where you are, then; you are not in anybody’s way; I do not mind your being here, no more do any of the others, and when Telemachus comes home he will give you a shirt and cloak and will send you wherever you want to go.”
  [4] [the_odyssey > BOOK XV MINERVA SUMMONS TELEMACHUS FROM LACEDAEMON—HE MEETS WITH THEOCLYMENUS AT PYLOS AND BRINGS HIM TO ITHACA—ON LANDING HE GOES TO THE HUT OF] “We will be sure, sir,” answered Telemachus, “to tell him everything as soon as we see him. I wish I were as certain of finding Ulysses returned when I get back to Ithaca, that I might tell him of the very great kindness you have shown me and of the many beautiful presents I am taking with me.”
  [5] [the_odyssey > BOOK XV MINERVA SUMMONS TELEMACHUS FROM LACEDAEMON—HE MEETS WITH THEOCLYMENUS AT PYLOS AND BRINGS HIM TO ITHACA—ON LANDING HE GOES TO THE HUT OF] “The man who had seduced her then said, ‘Would you like to come along with us to see the house of your parents and your parents themselves? They are both alive and are said to be well off.’  “‘I will do so gladly,’ answered she, ‘if you men will first swear me a solemn oath that you will do me no harm by the way.’

=== [6] (current hint not in top-5) ===
Q: What trick did Penelope use to delay the suitors for three years?
GT: She worked on a great pall for Laertes all day, then unpicked the stitches by torchlight at night
OLD HINT: working on her great web all day long, but at night she would unpick the stitches again by torchlight. She fooled us in this way for three years
  [1] [the_odyssey > BOOK XXIII PENELOPE EVENTUALLY RECOGNISES HER HUSBAND—EARLY IN THE MORNING] what his brave wife would say to him when she saw him. For a long time she sat silent and as one lost in amazement. At one moment she looked him full in the face, but then again directly, she was misled by his shabby clothes and failed to recognise him,181 till Telemachus began to reproach her and said:
  [2] [the_odyssey > BOOK XXIII PENELOPE EVENTUALLY RECOGNISES HER HUSBAND—EARLY IN THE MORNING] Then Penelope sprang up from her couch, threw her arms round Euryclea, and wept for joy. “But my dear nurse,” said she, “explain this to me; if he has really come home as you say, how did he manage to overcome the wicked suitors single handed, seeing what a number of them there always were?”
  [3] [the_odyssey > BOOK XXIII PENELOPE EVENTUALLY RECOGNISES HER HUSBAND—EARLY IN THE MORNING] When she heard the sure proofs Ulysses now gave her, she fairly broke down. She flew weeping to his side, flung her arms about his neck, and kissed him. “Do not be angry with me Ulysses,” she cried, “you, who are the wisest of mankind. We have suffered, both of us. Heaven has denied us the happiness of spending our youth, and of growing old, together; do not then be aggrieved or take it amiss that I did not embrace you thus as soon as I saw you. I have been shuddering all the time through fear that someo
  [4] [the_odyssey > BOOK IV THE VISIT TO KING MENELAUS, WHO TELLS HIS STORY—MEANWHILE THE SUITORS IN ITHACA PLOT AGAINST TELEMACHUS.] But Penelope lay in her own room upstairs unable to eat or drink, and wondering whether her brave son would escape, or be overpowered by the wicked suitors. Like a lioness caught in the toils with huntsmen hemming her in on every side she thought and thought till she sank into a slumber, and lay on her bed bereft of thought and motion.
  [5] [the_odyssey > BOOK XXIII PENELOPE EVENTUALLY RECOGNISES HER HUSBAND—EARLY IN THE MORNING] When Ulysses and Penelope had had their fill of love they fell talking with one another. She told him how much she had had to bear in seeing the house filled with a crowd of wicked suitors who had killed so many sheep and oxen on her account, and had drunk so many casks of wine. Ulysses in his turn told her what he had suffered, and how much trouble he had himself given to other people. He told her everything, and she was so delighted to listen that she never went to sleep till he had ended his whole sto

=== [8] (current hint not in top-5) ===
Q: How did Ulysses blind the Cyclops Polyphemus?
GT: He drove a sharpened olive-wood stake heated in the fire into the monster's eye
OLD HINT: We drove the sharp end of the beam into the monster's eye, and bearing upon it with all my weight I kept turning it round and round
  [1] [the_odyssey > BOOK XVI ULYSSES REVEALS HIMSELF TO TELEMACHUS — Meanwhile Ulysses and the swineherd had lit a fire in the hut and were] Thus did he urge the swineherd; Eumaeus, therefore, took his sandals, bound them to his feet, and started for the town. Minerva watched him well off the station, and then came up to it in the form of a woman—fair, stately, and wise. She stood against the side of the entry, and revealed herself to Ulysses, but Telemachus could not see her, and knew not that she was there, for the gods do not let themselves be seen by everybody. Ulysses saw her, and so did the d
  [2] [the_odyssey > BOOK IX ULYSSES DECLARES HIMSELF AND BEGINS HIS STORY—-THE CICONS, LOTOPHAGI, AND CYCLOPES.] “‘What ails you, Polyphemus,’ said they, ‘that you make such a noise, breaking the stillness of the night, and preventing us from being able to sleep? Surely no man is carrying off your sheep? Surely no man is trying to kill you either by fraud or by force?’  “But Polyphemus shouted to them from inside the cave, ‘Noman is killing me by fraud; no man is killing me by force.’  “‘Then,’ said they, ‘if no man is attacking you, you must be ill; when Jove makes people ill, there is no help for
  [3] [the_odyssey > BOOK IX ULYSSES DECLARES HIMSELF AND BEGINS HIS STORY—-THE CICONS, LOTOPHAGI, AND CYCLOPES.] “‘Cyclops,’ said I, ‘you should have taken better measure of your man before eating up his comrades in your cave. You wretch, eat up your visitors in your own house? You might have known that your sin would find you out, and now Jove and the other gods have punished you.’
  [4] [the_odyssey > BOOK XVI ULYSSES REVEALS HIMSELF TO TELEMACHUS — Meanwhile Ulysses and the swineherd had lit a fire in the hut and were] He had hardly done speaking when Amphinomus turned in his place and saw the ship inside the harbour, with the crew lowering her sails, and putting by their oars; so he laughed, and said to the others, “We need not send them any message, for they are here. Some god must have told them, or else they saw the ship go by, and could not overtake her.”
  [5] [the_odyssey > BOOK XIX TELEMACHUS AND ULYSSES REMOVE THE ARMOUR—ULYSSES INTERVIEWS PENELOPE—EURYCLEA WASHES HIS FEET AND RECOGNISES THE SCAR ON HIS] As soon as Euryclea had got the scarred limb in her hands and had well hold of it, she recognised it and dropped the foot at once. The leg fell into the bath, which rang out and was overturned, so that all the water was spilt on the ground; Euryclea’s eyes between her joy and her grief filled with tears, and she could not speak, but she caught Ulysses by the beard and said, “My dear child, I am sure you must be Ulysses himself, only I did not kno

=== [9] (current hint not in top-5) ===
Q: How did Ulysses and his men escape from the Cyclops's cave?
GT: They hid under the bellies of the rams as they left the cave in the morning
OLD HINT: bound them noiselessly in threes together, with some of the withies on which the wicked monster used to sleep. There was to be a man under the middle sheep
  [1] [the_odyssey > BOOK XIII ULYSSES LEAVES SCHERIA AND RETURNS TO ITHACA — Thus did he speak, and they all held their peace throughout the covered] Therewith she went down into the cave to look for the safest hiding places, while Ulysses brought up all the treasure of gold, bronze, and good clothing which the Phaeacians had given him. They stowed everything carefully away, and Minerva set a stone against the door of the cave. Then the two sat down by the root of the great olive, and consulted how to compass the destruction of the wicked suitors.
  [2] [the_odyssey > BOOK XXIV THE GHOSTS OF THE SUITORS IN HADES—ULYSSES AND HIS MEN GO TO THE HOUSE OF LAERTES—THE PEOPLE OF ITHACA COME OUT TO ATTACK ULYSSES, BUT MINERVA] “I venture to think that if he had known the ground he would not have been puzzled, for there are two caves, distant about 80 or 100 yards from one another.” The cave in which Ulysses hid his treasure is, as I have already said, identifiable with singular completeness. The other cave presents no special features, neither in the poem nor in nature.]
  [3] [the_odyssey > BOOK IX ULYSSES DECLARES HIMSELF AND BEGINS HIS STORY—-THE CICONS, LOTOPHAGI, AND CYCLOPES.] “Then they went away, and I laughed inwardly at the success of my clever stratagem, but the Cyclops, groaning and in an agony of pain, felt about with his hands till he found the stone and took it from the door; then he sat in the doorway and stretched his hands in front of it to catch anyone going out with the sheep, for he thought I might be foolish enough to attempt this.
  [4] [the_odyssey > BOOK XIV ULYSSES IN THE HUT WITH EUMAEUS — Ulysses now left the haven, and took the rough track up through the] the sea side. But the gods soon undid my bonds for me, and having drawn my rags over my head I slid down the rudder into the sea, where I struck out and swam till I was well clear of them, and came ashore near a thick wood in which I lay concealed. They were very angry at my having escaped and went searching about for me, till at last they thought it was no further use and went back to their ship. The gods, having hidden me thus easily, then took me to a good man’s doo
  [5] [the_odyssey > BOOK IX ULYSSES DECLARES HIMSELF AND BEGINS HIS STORY—-THE CICONS, LOTOPHAGI, AND CYCLOPES.] “‘Cyclops,’ said I, ‘you should have taken better measure of your man before eating up his comrades in your cave. You wretch, eat up your visitors in your own house? You might have known that your sin would find you out, and now Jove and the other gods have punished you.’

=== [10] (current hint not in top-5) ===
Q: What did Circe instruct Ulysses to do to protect his men from the Sirens?
GT: Stop his men's ears with wax and have himself lashed to the mast if he wished to listen
OLD HINT: stop your men's ears with wax that none of them may hear; but if you like you can listen yourself, for you may get the men to bind you as you stand upright on a cross piece half way up the mast
  [1] [the_odyssey > BOOK XII THE SIRENS, SCYLLA AND CHARYBDIS, THE CATTLE OF THE SUN — “After we were clear of the river Oceanus, and had got out into the] troubled I said to the men, ‘My men, I know you are hard pressed, but listen while I tell you the prophecy that Teiresias made me, and how carefully Aeaean Circe warned me to shun the island of the blessed sun-god, for it was here, she said, that our worst danger would lie. Head the ship, therefore, away from the island.’
  [2] [the_odyssey > BOOK XII THE SIRENS, SCYLLA AND CHARYBDIS, THE CATTLE OF THE SUN — “After we were clear of the river Oceanus, and had got out into the] “Then, being much troubled in mind, I said to my men, ‘My friends, it is not right that one or two of us alone should know the prophecies that Circe has made me, I will therefore tell you about them, so that whether we live or die we may do so with our eyes open. First she said we were to keep clear of the Sirens, who sit and sing most beautifully in a field of flowers; but she said I might hear them myself so long as no one else did. Therefore,
  [3] [the_odyssey > BOOK IX ULYSSES DECLARES HIMSELF AND BEGINS HIS STORY—-THE CICONS, LOTOPHAGI, AND CYCLOPES.] “‘Do not,’ they exclaimed, ‘be mad enough to provoke this savage creature further; he has thrown one rock at us already which drove us back again to the mainland, and we made sure it had been the death of us; if he had then heard any further sound of voices he would have pounded our heads and our ship’s timbers into a jelly with the rugged rocks he would have heaved at us, for he can throw them a long way.’
  [4] [the_odyssey > BOOK XIV ULYSSES IN THE HUT WITH EUMAEUS — Ulysses now left the haven, and took the rough track up through the] “‘Ulysses,’ said I, ‘this cold will be the death of me, for I have no cloak; some god fooled me into setting off with nothing on but my shirt, and I do not know what to do.’  “Ulysses, who was as crafty as he was valiant, hit upon the following plan:  “‘Keep still,’ said he in a low voice, ‘or the others will hear you.’ Then he raised his head on his elbow.  “‘My friends,’ said he, ‘I have had a dream from heaven in my sleep. We are a long way from the ships; I wish so
  [5] [the_odyssey > BOOK IX ULYSSES DECLARES HIMSELF AND BEGINS HIS STORY—-THE CICONS, LOTOPHAGI, AND CYCLOPES.] “‘What ails you, Polyphemus,’ said they, ‘that you make such a noise, breaking the stillness of the night, and preventing us from being able to sleep? Surely no man is carrying off your sheep? Surely no man is trying to kill you either by fraud or by force?’  “But Polyphemus shouted to them from inside the cave, ‘Noman is killing me by fraud; no man is killing me by force.’  “‘Then,’ said they, ‘if no man is attacking you, you must be ill; when Jove makes people ill, there is no help for

=== [12] (current hint not in top-5) ===
Q: What did Calypso promise to give Ulysses when she agreed to let him leave?
GT: She promised to put bread, wine, and water on board, give him clothes, and send a fair wind to take him home
OLD HINT: I will put bread, wine, and water on board to save you from starving. I will also give you clothes, and will send you a fair wind to take you home
  [1] [the_odyssey > BOOK V CALYPSO—ULYSSES REACHES SCHERIA ON A RAFT — And now, as Dawn rose from her couch beside Tithonus—harbinger of light] When she had thus spoken she led the way rapidly before him, and Ulysses followed in her steps; so the pair, goddess and man, went on and on till they came to Calypso’s cave, where Ulysses took the seat that Mercury had just left. Calypso set meat and drink before him of the food that mortals eat; but her maids brought ambrosia and nectar for herself, and they laid their hands on the good things that were before them. When they had satisfied themselves with
  [2] [the_odyssey > BOOK V CALYPSO—ULYSSES REACHES SCHERIA ON A RAFT — And now, as Dawn rose from her couch beside Tithonus—harbinger of light] give him more bronze and gold and raiment than he would have brought back from Troy, if he had had all his prize money and had got home without disaster. This is how we have settled that he shall return to his country and his friends.”
  [3] [the_odyssey > BOOK V CALYPSO—ULYSSES REACHES SCHERIA ON A RAFT — And now, as Dawn rose from her couch beside Tithonus—harbinger of light] Calypso knew him at once—for the gods all know each other, no matter how far they live from one another—but Ulysses was not within; he was on the sea-shore as usual, looking out upon the barren ocean with tears in his eyes, groaning and breaking his heart for sorrow. Calypso gave Mercury a seat and said: “Why have you come to see me, Mercury—honoured, and ever welcome—for you do not visit me often? Say what you want; I will do it for you at once if I can, a
  [4] [the_odyssey > BOOK V CALYPSO—ULYSSES REACHES SCHERIA ON A RAFT — And now, as Dawn rose from her couch beside Tithonus—harbinger of light] “Then send him away,” said Mercury, “or Jove will be angry with you and punish you”.
  [5] [the_odyssey > BOOK V CALYPSO—ULYSSES REACHES SCHERIA ON A RAFT — And now, as Dawn rose from her couch beside Tithonus—harbinger of light] Calypso smiled at this and caressed him with her hand: “You know a great deal,” said she, “but you are quite wrong here. May heaven above and earth below be my witnesses, with the waters of the river Styx—and this is the most solemn oath which a blessed god can take—that I mean you no sort of harm, and am only advising you to do exactly what I should do myself in your place. I am dealing with you quite straightforwardly; my heart is not made of iron, and I 

=== [13] (current hint not in top-5) ===
Q: Where did Telemachus travel to seek news of his father?
GT: He went to Pylos to see Nestor and to Sparta to see Menelaus
OLD HINT: I am going to Sparta and to Pylos to see if I can hear anything about the return of my dear father
  [1] [the_odyssey > BOOK XV MINERVA SUMMONS TELEMACHUS FROM LACEDAEMON—HE MEETS WITH THEOCLYMENUS AT PYLOS AND BRINGS HIM TO ITHACA—ON LANDING HE GOES TO THE HUT OF] Telemachus said, “I will answer you quite truly. I am from Ithaca, and my father is Ulysses, as surely as that he ever lived. But he has come to some miserable end. Therefore I have taken this ship and got my crew together to see if I can hear any news of him, for he has been away a long time.”
  [2] [the_odyssey > BOOK IV THE VISIT TO KING MENELAUS, WHO TELLS HIS STORY—MEANWHILE THE SUITORS IN ITHACA PLOT AGAINST TELEMACHUS.] is how Telemachus is now placed, for his father is absent, and there is no one among his own people to stand by him.”
  [3] [the_odyssey > BOOK I THE GODS IN COUNCIL—MINERVA’S VISIT TO ITHACA—THE CHALLENGE FROM TELEMACHUS TO THE SUITORS.] “My father is dead and gone,” answered Telemachus, “and even if some rumour reaches me I put no more faith in it now. My mother does indeed sometimes send for a soothsayer and question him, but I give his prophecyings no heed. As for the stranger, he was Mentes, son of Anchialus, chief of the Taphians, an old friend of my father’s.” But in his heart he knew that it had been the goddess.
  [4] [the_odyssey > BOOK III TELEMACHUS VISITS NESTOR AT PYLOS — but as the sun was rising from the fair sea24 into the firmament of] Minerva led the way and Telemachus followed her. Presently she said, “Telemachus, you must not be in the least shy or nervous; you have taken this voyage to try and find out where your father is buried and how he came by his end; so go straight up to Nestor that we may see what he has got to tell us. Beg of him to speak the truth, and he will tell no lies, for he is an excellent person.”
  [5] [the_odyssey > BOOK III TELEMACHUS VISITS NESTOR AT PYLOS — but as the sun was rising from the fair sea24 into the firmament of] Telemachus answered, “I can expect nothing of the kind; it would be far too much to hope for. I dare not let myself think of it. Even though the gods themselves willed it no such good fortune could befall me.”

=== [14] (current hint not in top-5) ===
Q: What did Menelaus say about Ulysses that moved Telemachus to weep?
GT: That no one of all the Achaeans worked so hard or risked so much as Ulysses did
OLD HINT: no one of all the Achaeans worked so hard or risked so much as he did. He took nothing by it, and has left a legacy of sorrow to myself
  [1] [the_odyssey > BOOK IV THE VISIT TO KING MENELAUS, WHO TELLS HIS STORY—MEANWHILE THE SUITORS IN ITHACA PLOT AGAINST TELEMACHUS.] “Thus spoke Proteus, and I was broken hearted as I heard him. I sat down upon the sands and wept; I felt as though I could no longer bear to live nor look upon the light of the sun. Presently, when I had had my fill of weeping and writhing upon the ground, the old man of the sea said, ‘Son of Atreus, do not waste any more time in crying so bitterly; it can do no manner of good; find your way home as fast as ever you can, for Aegisthus may be still alive, and even tho
  [2] [the_odyssey > BOOK IV THE VISIT TO KING MENELAUS, WHO TELLS HIS STORY—MEANWHILE THE SUITORS IN ITHACA PLOT AGAINST TELEMACHUS.] Thus did he speak, and his words set them all a weeping. Helen wept, Telemachus wept, and so did Menelaus, nor could Pisistratus keep his eyes from filling, when he remembered his dear brother Antilochus whom the son of bright Dawn had killed. Thereon he said to Menelaus,
  [3] [the_odyssey > BOOK XVI ULYSSES REVEALS HIMSELF TO TELEMACHUS — Meanwhile Ulysses and the swineherd had lit a fire in the hut and were] As he spoke he sat down, and Telemachus threw his arms about his father and wept. They were both so much moved that they cried aloud like eagles or vultures with crooked talons that have been robbed of their half fledged young by peasants. Thus piteously did they weep, and the sun would have gone down upon their mourning if Telemachus had not suddenly said, “In what ship, my dear father, did your crew bring you to Ithaca? Of what nation did they declare themse
  [4] [the_odyssey > BOOK IV THE VISIT TO KING MENELAUS, WHO TELLS HIS STORY—MEANWHILE THE SUITORS IN ITHACA PLOT AGAINST TELEMACHUS.] “How sad,” exclaimed Telemachus, “that all this was of no avail to save him, nor yet his own iron courage. But now, sir, be pleased to send us all to bed, that we may lie down and enjoy the blessed boon of sleep.”
  [5] [the_odyssey > BOOK IV THE VISIT TO KING MENELAUS, WHO TELLS HIS STORY—MEANWHILE THE SUITORS IN ITHACA PLOT AGAINST TELEMACHUS.] traveller; for he was a man born to trouble. Do not soften things out of any pity for myself, but tell me in all plainness exactly what you saw. If my brave father Ulysses ever did you loyal service either by word or deed, when you Achaeans were harassed by the Trojans, bear it in mind now as in my favour and tell me truly all.”

=== [15] (current hint not in top-5) ===
Q: How did Minerva encourage Telemachus to set off on his voyage?
GT: She told him if he were made of the same stuff as his father he would be neither fool nor coward henceforward
OLD HINT: if you are made of the same stuff as your father you will be neither fool nor coward henceforward, for Ulysses never broke his word nor left his work half done
  [1] [the_odyssey > BOOK XV MINERVA SUMMONS TELEMACHUS FROM LACEDAEMON—HE MEETS WITH THEOCLYMENUS AT PYLOS AND BRINGS HIM TO ITHACA—ON LANDING HE GOES TO THE HUT OF] Pisistratus thought how he should do as he was asked, and in the end he deemed it best to turn his horses towards the ship, and put Menelaus’s beautiful presents of gold and raiment in the stern of the vessel. Then he said, “Go on board at once and tell your men to do so also before I can reach home to tell my father. I know how obstinate he is, and am sure he will not let you go; he will come down here to fetch you, and he will not go
  [2] [the_odyssey > BOOK XV MINERVA SUMMONS TELEMACHUS FROM LACEDAEMON—HE MEETS WITH THEOCLYMENUS AT PYLOS AND BRINGS HIM TO ITHACA—ON LANDING HE GOES TO THE HUT OF] As he spoke he went on board, and bade the others do so also and loose the hawsers, so they took their places in the ship. But Telemachus bound on his sandals, and took a long and doughty spear with a head of sharpened bronze from the deck of the ship. Then they loosed the hawsers, thrust the ship off from land, and made on towards the city as they had been told to do, while Telemachus strode on as fast as he could, till he reached the
  [3] [the_odyssey > BOOK XV MINERVA SUMMONS TELEMACHUS FROM LACEDAEMON—HE MEETS WITH THEOCLYMENUS AT PYLOS AND BRINGS HIM TO ITHACA—ON LANDING HE GOES TO THE HUT OF] “We will be sure, sir,” answered Telemachus, “to tell him everything as soon as we see him. I wish I were as certain of finding Ulysses returned when I get back to Ithaca, that I might tell him of the very great kindness you have shown me and of the many beautiful presents I am taking with me.”
  [4] [the_odyssey > BOOK XV MINERVA SUMMONS TELEMACHUS FROM LACEDAEMON—HE MEETS WITH THEOCLYMENUS AT PYLOS AND BRINGS HIM TO ITHACA—ON LANDING HE GOES TO THE HUT OF] “May Jove so grant it,” replied Telemachus, “if it should prove to be so, I will make vows to you as though you were a god, even when I am at home.”
  [5] [the_odyssey > BOOK XV MINERVA SUMMONS TELEMACHUS FROM LACEDAEMON—HE MEETS WITH THEOCLYMENUS AT PYLOS AND BRINGS HIM TO ITHACA—ON LANDING HE GOES TO THE HUT OF] winds and waves took the ship to Ithaca, where Laertes gave sundry of his chattels for me, and thus it was that ever I came to set eyes upon this country.”

=== [16] (current hint not in top-5) ===
Q: What were the suitors doing in Ulysses' house throughout the story?
GT: They were eating up his estate, sacrificing his oxen and sheep for their banquets, and courting Penelope against her will
OLD HINT: day by day they keep hanging about my father's house, sacrificing our oxen, sheep, and fat goats for their banquets, and never giving so much as a thought to the quantity of wine they drink
  [1] [the_odyssey > BOOK XXIV THE GHOSTS OF THE SUITORS IN HADES—ULYSSES AND HIS MEN GO TO THE HOUSE OF LAERTES—THE PEOPLE OF ITHACA COME OUT TO ATTACK ULYSSES, BUT MINERVA] no time to lose, for I should tell you that I have been killing the suitors in my house, to punish them for their insolence and crimes.”
  [2] [the_odyssey > BOOK XXIV THE GHOSTS OF THE SUITORS IN HADES—ULYSSES AND HIS MEN GO TO THE HOUSE OF LAERTES—THE PEOPLE OF ITHACA COME OUT TO ATTACK ULYSSES, BUT MINERVA] [182] [ The people of Ithaca seem to have been as fond of carping as the Phaeacians were in vi. 273, etc.]  [183] [ See note [156]. Ulysses’s bed room does not appear to have been upstairs, nor yet quite within the house. Is it possible that it was “the domed room” round the outside of which the erring maids were, for aught we have heard to the contrary, still hanging?]  [184] [ Ulysses bedroom in the mind of the writer is here
  [3] [the_odyssey > BOOK XXIV THE GHOSTS OF THE SUITORS IN HADES—ULYSSES AND HIS MEN GO TO THE HOUSE OF LAERTES—THE PEOPLE OF ITHACA COME OUT TO ATTACK ULYSSES, BUT MINERVA] best to be crafty with him, so in this mind he went up to his father, who was bending down and digging about a plant.
  [4] [the_odyssey > BOOK XXIV THE GHOSTS OF THE SUITORS IN HADES—ULYSSES AND HIS MEN GO TO THE HOUSE OF LAERTES—THE PEOPLE OF ITHACA COME OUT TO ATTACK ULYSSES, BUT MINERVA] Ulysses answered, “Take heart and do not trouble yourself about that, but let us go into the house hard by your garden. I have already told Telemachus, Philoetius, and Eumaeus to go on there and get dinner ready as soon as possible.”
  [5] [the_odyssey > BOOK XXIV THE GHOSTS OF THE SUITORS IN HADES—ULYSSES AND HIS MEN GO TO THE HOUSE OF LAERTES—THE PEOPLE OF ITHACA COME OUT TO ATTACK ULYSSES, BUT MINERVA] Thus did they converse in the house of Hades deep down within the bowels of the earth. Meanwhile Ulysses and the others passed out of the town and soon reached the fair and well-tilled farm of Laertes, which he had reclaimed with infinite labour. Here was his house, with a lean-to running all round it, where the slaves who worked for him slept and sat and ate, while inside the house there was an old Sicel woman, who looked afte

=== [17] (current hint not in top-5) ===
Q: What omen appeared when Telemachus addressed the assembly about the suitors?
GT: Jove sent two eagles from the top of the mountain which flew over the assembly
OLD HINT: Jove sent two eagles from the top of the mountain, and they flew on and on with the wind, sailing side by side in their own lordly flight
  [1] [the_odyssey > BOOK II ASSEMBLY OF THE PEOPLE OF ITHACA—SPEECHES OF TELEMACHUS AND OF THE SUITORS—TELEMACHUS MAKES HIS PREPARATIONS AND STARTS FOR PYLOS WITH] “Men of Ithaca,” he said, “hear my words. From the day Ulysses left us there has been no meeting of our councillors until now; who then can it be, whether old or young, that finds it so necessary to convene us? Has he got wind of some host approaching, and does he wish to warn us, or would he speak upon some other matter of public moment? I am sure he is an excellent person, and I hope Jove will grant him his heart’s desire.”
  [2] [the_odyssey > BOOK II ASSEMBLY OF THE PEOPLE OF ITHACA—SPEECHES OF TELEMACHUS AND OF THE SUITORS—TELEMACHUS MAKES HIS PREPARATIONS AND STARTS FOR PYLOS WITH] With these words he sat down, and Mentor20 who had been a friend of Ulysses, and had been left in charge of everything with full authority over the servants, rose to speak. He, then, plainly and in all honesty addressed them thus:
  [3] [the_odyssey > BOOK II ASSEMBLY OF THE PEOPLE OF ITHACA—SPEECHES OF TELEMACHUS AND OF THE SUITORS—TELEMACHUS MAKES HIS PREPARATIONS AND STARTS FOR PYLOS WITH] On this he broke up the assembly, and every man went back to his own abode, while the suitors returned to the house of Ulysses.  Then Telemachus went all alone by the sea side, washed his hands in the grey waves, and prayed to Minerva.  “Hear me,” he cried, “you god who visited me yesterday, and bade me sail the seas in search of my father who has so long been missing. I would obey you, but the Achaeans, and more particularly the wicked 
  [4] [the_odyssey > BOOK II ASSEMBLY OF THE PEOPLE OF ITHACA—SPEECHES OF TELEMACHUS AND OF THE SUITORS—TELEMACHUS MAKES HIS PREPARATIONS AND STARTS FOR PYLOS WITH] With this Telemachus dashed his staff to the ground and burst into tears. Every one was very sorry for him, but they all sat still and no one ventured to make him an angry answer, save only Antinous, who spoke thus:
  [5] [the_odyssey > BOOK II ASSEMBLY OF THE PEOPLE OF ITHACA—SPEECHES OF TELEMACHUS AND OF THE SUITORS—TELEMACHUS MAKES HIS PREPARATIONS AND STARTS FOR PYLOS WITH] all this might be; whereon Halitherses, who was the best prophet and reader of omens among them, spoke to them plainly and in all honesty, saying:

=== [18] (current hint not in top-5) ===
Q: What did the prophet Halitherses say the omen of the eagles meant?
GT: He said Ulysses was not going to be away much longer and was close at hand to deal out death and destruction on the suitors
OLD HINT: Ulysses is not going to be away much longer; indeed he is close at hand to deal out death and destruction, not on them alone, but on many another of us who live in Ithaca
  [1] [the_odyssey > BOOK II ASSEMBLY OF THE PEOPLE OF ITHACA—SPEECHES OF TELEMACHUS AND OF THE SUITORS—TELEMACHUS MAKES HIS PREPARATIONS AND STARTS FOR PYLOS WITH] all this might be; whereon Halitherses, who was the best prophet and reader of omens among them, spoke to them plainly and in all honesty, saying:
  [2] [the_odyssey > BOOK II ASSEMBLY OF THE PEOPLE OF ITHACA—SPEECHES OF TELEMACHUS AND OF THE SUITORS—TELEMACHUS MAKES HIS PREPARATIONS AND STARTS FOR PYLOS WITH] As he spoke Jove sent two eagles from the top of the mountain, and they flew on and on with the wind, sailing side by side in their own lordly flight. When they were right over the middle of the assembly they wheeled and circled about, beating the air with their wings and glaring death into the eyes of them that were below; then, fighting fiercely and tearing at one another, they flew off towards the right over the town. The people wonde
  [3] [the_odyssey > BOOK XIX TELEMACHUS AND ULYSSES REMOVE THE ARMOUR—ULYSSES INTERVIEWS PENELOPE—EURYCLEA WASHES HIS FEET AND RECOGNISES THE SCAR ON HIS] a trough,155 and of which I am exceedingly fond. I dreamed that a great eagle came swooping down from a mountain, and dug his curved beak into the neck of each of them till he had killed them all. Presently he soared off into the sky, and left them lying dead about the yard; whereon I wept in my dream till all my maids gathered round me, so piteously was I grieving because the eagle had killed my geese. Then he came back again, and perching on a 
  [4] [the_odyssey > BOOK XX ULYSSES CANNOT SLEEP—PENELOPE’S PRAYER TO DIANA—THE TWO SIGNS FROM HEAVEN—EUMAEUS AND PHILOETIUS ARRIVE—THE SUITORS DINE—CTESIPPUS THROWS] And in like manner Eumaeus prayed that Ulysses might return home.  Thus did they converse. Meanwhile the suitors were hatching a plot to murder Telemachus: but a bird flew near them on their left hand—an eagle with a dove in its talons. On this Amphinomus said, “My friends, this plot of ours to murder Telemachus will not succeed; let us go to dinner instead.”
  [5] [the_odyssey > BOOK XX ULYSSES CANNOT SLEEP—PENELOPE’S PRAYER TO DIANA—THE TWO SIGNS FROM HEAVEN—EUMAEUS AND PHILOETIUS ARRIVE—THE SUITORS DINE—CTESIPPUS THROWS] Ulysses was glad when he heard the omens conveyed to him by the woman’s speech, and by the thunder, for he knew they meant that he should avenge himself on the suitors.

=== [19] (current hint not in top-5) ===
Q: What did Menelaus say he would have done for Ulysses had he returned safely from Troy?
GT: He said he would have founded a city for him in Argos, built him a house, and made him leave Ithaca with all his people
OLD HINT: I should have founded a city for him in Argos, and built him a house. I should have made him leave Ithaca with his goods, his son, and all his people
  [1] [the_odyssey > BOOK XIII ULYSSES LEAVES SCHERIA AND RETURNS TO ITHACA — Thus did he speak, and they all held their peace throughout the covered] And Ulysses answered, “In good truth, goddess, it seems I should have come to much the same bad end in my own house as Agamemnon did, if you had not given me such timely information. Advise me how I shall best avenge myself. Stand by my side and put your courage into my heart as on the day when we loosed Troy’s fair diadem from her brow. Help me now as you did then, and I will fight three hundred men, if you, goddess, will be with me.”
  [2] [the_odyssey > BOOK XIII ULYSSES LEAVES SCHERIA AND RETURNS TO ITHACA — Thus did he speak, and they all held their peace throughout the covered] Minerva answered, “Never mind about him, I sent him that he might be well spoken of for having gone. He is in no sort of difficulty, but is staying quite comfortably with Menelaus, and is surrounded with abundance of every kind. The suitors have put out to sea and are lying in wait for him, for they mean to kill him before he can get home. I do not much think they will succeed, but rather that some of those who are now eating up your estate will first
  [3] [the_odyssey > BOOK XIII ULYSSES LEAVES SCHERIA AND RETURNS TO ITHACA — Thus did he speak, and they all held their peace throughout the covered] promised that he should do so; but now they have brought him in a ship fast asleep and have landed him in Ithaca after loading him with more magnificent presents of bronze, gold, and raiment than he would ever have brought back from Troy, if he had had his share of the spoil and got home without misadventure.”
  [4] [the_odyssey > BOOK IV THE VISIT TO KING MENELAUS, WHO TELLS HIS STORY—MEANWHILE THE SUITORS IN ITHACA PLOT AGAINST TELEMACHUS.] traveller; for he was a man born to trouble. Do not soften things out of any pity for myself, but tell me in all plainness exactly what you saw. If my brave father Ulysses ever did you loyal service either by word or deed, when you Achaeans were harassed by the Trojans, bear it in mind now as in my favour and tell me truly all.”
  [5] [the_odyssey > BOOK XIII ULYSSES LEAVES SCHERIA AND RETURNS TO ITHACA — Thus did he speak, and they all held their peace throughout the covered] proceed to Sparta and see your son, who is with Menelaus at Lacedaemon, where he has gone to try and find out whether you are still alive.”125
